@<TRIPOS>MOLECULE
BTN.pdb
 62 64 0 0 0
SMALL
GASTEIGER

@<TRIPOS>ATOM
      1 C          32.6920   18.0830   13.9880 C.2     1  UNL1        0.0417
      2 O          33.5800   17.3700   13.4530 O.co2   1  UNL1       -0.5498
      3 O          32.6200   19.3280   13.7750 O.co2   1  UNL1       -0.5498
      4 C          31.7150   17.4590   14.9100 C.3     1  UNL1       -0.0132
      5 C          31.3080   16.0370   14.5250 C.3     1  UNL1       -0.0479
      6 C          30.5210   16.0390   13.1930 C.3     1  UNL1       -0.0517
      7 C          30.1010   14.5980   12.8000 C.3     1  UNL1       -0.0394
      8 C          29.3000   14.5470   11.5050 C.3     1  UNL1        0.0255
      9 S          27.5890   15.1970   11.6360 S.3     1  UNL1       -0.1536
     10 C          27.2490   14.5590    9.9820 C.3     1  UNL1        0.0143
     11 C          27.8730   13.1670    9.9310 C.3     1  UNL1        0.0529
     12 N          27.0270   12.1200   10.4720 N.am    1  UNL1       -0.2940
     13 C          27.5510   11.5300   11.5630 C.2     1  UNL1        0.3002
     14 O          26.9870   10.6260   12.2170 O.2     1  UNL1       -0.2528
     15 N          28.7390   12.1070   11.8320 N.am    1  UNL1       -0.2937
     16 C          29.0950   13.1550   10.8780 C.3     1  UNL1        0.0555
     17 C           6.3830   24.5750    3.1720 C.2     2  UNL2        0.0417
     18 O           6.1040   25.2900    2.1760 O.co2   2  UNL2       -0.5498
     19 O           6.5790   23.3350    3.0690 O.co2   2  UNL2       -0.5498
     20 C           6.4630   25.1970    4.5070 C.3     2  UNL2       -0.0132
     21 C           7.0130   26.6310    4.5380 C.3     2  UNL2       -0.0479
     22 C           8.4820   26.6450    4.0740 C.3     2  UNL2       -0.0517
     23 C           9.1020   28.0770    4.1210 C.3     2  UNL2       -0.0394
     24 C          10.5850   28.1050    3.7250 C.3     2  UNL2        0.0255
     25 S          11.6640   27.4280    5.0440 S.3     2  UNL2       -0.1536
     26 C          13.1110   28.0300    4.1250 C.3     2  UNL2        0.0143
     27 C          12.7180   29.4180    3.6250 C.3     2  UNL2        0.0529
     28 N          12.9690   30.4630    4.5720 N.am    2  UNL2       -0.2940
     29 C          11.8450   31.0770    5.0070 C.2     2  UNL2        0.3002
     30 O          11.7700   31.9950    5.8400 O.2     2  UNL2       -0.2528
     31 N          10.7860   30.5300    4.3480 N.am    2  UNL2       -0.2937
     32 C          11.1890   29.4550    3.4200 C.3     2  UNL2        0.0555
     33 H          30.8345   18.0668   14.9270 H       1  UNL1        0.0325
     34 H          32.1929   17.3935   15.8651 H       1  UNL1        0.0325
     35 H          32.1872   15.4374   14.4134 H       1  UNL1        0.0269
     36 H          30.6827   15.6361   15.2952 H       1  UNL1        0.0269
     37 H          29.6442   16.6421   13.3044 H       1  UNL1        0.0266
     38 H          31.1498   16.4353   12.4233 H       1  UNL1        0.0266
     39 H          30.9840   14.0059   12.6790 H       1  UNL1        0.0276
     40 H          29.4737   14.2218   13.5809 H       1  UNL1        0.0276
     41 H          29.9370   15.1559   10.8980 H       1  UNL1        0.0431
     42 H          26.1936   14.4995    9.8162 H       1  UNL1        0.0395
     43 H          27.6537   15.1977    9.2249 H       1  UNL1        0.0395
     44 H          28.0775   12.9818    8.8972 H       1  UNL1        0.0525
     45 H          26.1593   11.8670   10.0817 H       1  UNL1        0.1506
     46 H          29.3082   11.8490   12.5927 H       1  UNL1        0.1506
     47 H          30.0360   12.9522   10.4107 H       1  UNL1        0.0528
     48 H           7.0970   24.5878    5.1168 H       2  UNL2        0.0325
     49 H           5.4554   25.2617    4.8612 H       2  UNL2        0.0325
     50 H           6.4301   27.2477    3.8862 H       2  UNL2        0.0269
     51 H           6.9584   27.0054    5.5389 H       2  UNL2        0.0269
     52 H           9.0511   26.0020    4.7125 H       2  UNL2        0.0266
     53 H           8.5088   26.3088    3.0586 H       2  UNL2        0.0266
     54 H           8.5579   28.7058    3.4476 H       2  UNL2        0.0276
     55 H           9.0355   28.4202    5.1323 H       2  UNL2        0.0276
     56 H          10.5591   27.5199    2.8295 H       2  UNL2        0.0431
     57 H          13.9649   28.0902    4.7670 H       2  UNL2        0.0395
     58 H          13.3752   27.3751    3.3211 H       2  UNL2        0.0395
     59 H          13.2959   29.5791    2.7390 H       2  UNL2        0.0525
     60 H          13.8719   30.7103    4.8767 H       2  UNL2        0.1506
     61 H           9.8539   30.8198    4.4765 H       2  UNL2        0.1506
     62 H          10.8595   29.6517    2.4212 H       2  UNL2        0.0528
@<TRIPOS>UNITY_ATOM_ATTR
3 1
charge -1
19 1
charge -1
@<TRIPOS>BOND
     1    18    17   ar
     2    19    17   ar
     3    17    20    1
     4    32    27    1
     5    32    24    1
     6    32    31    1
     7    27    26    1
     8    27    28    1
     9    24    23    1
    10    24    25    1
    11    22    23    1
    12    22    21    1
    13    26    25    1
    14    31    29   am
    15    20    21    1
    16    28    29   am
    17    29    30    2
    18    11    10    1
    19    11    12    1
    20    11    16    1
    21    10     9    1
    22    12    13   am
    23    16     8    1
    24    16    15    1
    25     8     9    1
    26     8     7    1
    27    13    15   am
    28    13    14    2
    29     7     6    1
    30     6     5    1
    31     2     1   ar
    32     3     1   ar
    33     1     4    1
    34     5     4    1
    35     4    33    1
    36     4    34    1
    37     5    35    1
    38     5    36    1
    39     6    37    1
    40     6    38    1
    41     7    39    1
    42     7    40    1
    43     8    41    1
    44    10    42    1
    45    10    43    1
    46    11    44    1
    47    12    45    1
    48    15    46    1
    49    16    47    1
    50    20    48    1
    51    20    49    1
    52    21    50    1
    53    21    51    1
    54    22    52    1
    55    22    53    1
    56    23    54    1
    57    23    55    1
    58    24    56    1
    59    26    57    1
    60    26    58    1
    61    27    59    1
    62    28    60    1
    63    31    61    1
    64    32    62    1
